* Custom SkyWater-like BSIM4 Models for Auto-Centering Tool
* Based on SkyWater 130nm PDK specifications
* Created for testing and development

* NMOS 1.8V device
.model sky130_fd_pr__nfet_01v8 nmos level=54 version=4.7 toxe=3.05e-9 vth0=0.35 u0=400 vsat=1.5e5 k1=0.39 k2=0.05 vfb=-0.9 xt=1.55e-7 lint=0 wint=0 mobmod=0 binunit=2 paramchk=1 rdsw=200 prwg=0.5 prwb=0.2 prt=0 eta0=0.08 etab=-0.07 dsub=0.56 cit=0 cdsc=2.4e-4 cdscd=0 cdscb=0 dvt0=2.2 dvt1=0.53 dvt2=-0.032 dvt0w=0 dvt1w=5.3e6 dvt2w=-0.032 ua=-1.18e-9 ub=2.31e-18 uc=5.69e-11 u0=0.067 vsat=8e4 a0=2 ags=0.4 a1=0 a2=1 b0=0 b1=0 keta=0.047 dwg=0 dwb=0 pclm=1.3 pdiblc1=0.39 pdiblc2=0.0086 pdiblcb=0.1 drout=0.56 pvag=1e-20 delta=0.01 pscbe1=4.24e8 pscbe2=1e-7 fprout=0.2 pdits=0.08 pditsd=0.23 pditsl=2.3e6 rsh=6.8 js=2.50e-6

* PMOS 1.8V device  
.model sky130_fd_pr__pfet_01v8 pmos level=54 version=4.7 toxe=3.05e-9 vth0=-0.35 u0=150 vsat=1.0e5 k1=0.35 k2=0.05 vfb=0.9 xt=1.55e-7 lint=0 wint=0 mobmod=0 binunit=2 paramchk=1 rdsw=250 prwg=0.5 prwb=0.2 prt=0 eta0=0.08 etab=-0.07 dsub=0.56 cit=0 cdsc=2.4e-4 cdscd=0 cdscb=0 dvt0=2.2 dvt1=0.53 dvt2=-0.032 dvt0w=0 dvt1w=5.3e6 dvt2w=-0.032 ua=-1.18e-9 ub=2.31e-18 uc=5.69e-11 u0=0.025 vsat=6e4 a0=2 ags=0.4 a1=0 a2=1 b0=0 b1=0 keta=0.047 dwg=0 dwb=0 pclm=1.3 pdiblc1=0.39 pdiblc2=0.0086 pdiblcb=0.1 drout=0.56 pvag=1e-20 delta=0.01 pscbe1=4.24e8 pscbe2=1e-7 fprout=0.2 pdits=0.08 pditsd=0.23 pditsl=2.3e6 rsh=7.2 js=1.50e-6

* High-voltage NMOS (if needed)
.model sky130_fd_pr__nfet_g5v0d10v5 nmos level=54 version=4.7 toxe=8.85e-9 vth0=0.7 u0=350 vsat=1.2e5 k1=0.45 k2=0.1 vfb=-1.0 xt=1.55e-7 lint=0 wint=0 mobmod=0 binunit=2 paramchk=1

* High-voltage PMOS (if needed)  
.model sky130_fd_pr__pfet_g5v0d10v5 pmos level=54 version=4.7 toxe=8.85e-9 vth0=-0.8 u0=120 vsat=8e4 k1=0.4 k2=0.1 vfb=1.0 xt=1.55e-7 lint=0 wint=0 mobmod=0 binunit=2 paramchk=1