* SkyWater BSIM4 Centered Model
* Generated by Auto-Centering Tool (Constant Current Method)
* Date: 2025-06-17 00:33:52
* Based on: sky130_fd_pr__nfet_01v8

.model nch_centered nmos level=54 version=4.7 toxe=3.050000e-09 vth0=2.579326e-01 u0=3.780871e+02 vsat=1.417827e+05 k1=0.39 k2=0.05 vfb=-0.9 xt=1.55e-7 lint=0 wint=0 mobmod=0 binunit=2 paramchk=1